#
# Generated by PyRED version JAN-2019
#     http://q4md-forcefieldtools.org
#
@<TRIPOS>MOLECULE
DRM
    76    80     1     0     1
SMALL
USER_CHARGES
@<TRIPOS>ATOM
   1 C1    -1.537317  -0.844315  -0.367625 C    1   DRM  0.7623  0.0000 ****
   2 O1    -1.222848  -0.354612   0.677845 O    1   DRM -0.5421  0.0000 ****
   3 N2    -0.657129  -1.356882  -1.277563 N    1   DRM -0.4146  0.0000 ****
   4 H     -1.001110  -1.577668  -2.185101 H    1   DRM  0.2747  0.0000 ****
   5 N9    -2.848781  -0.926651  -0.785573 N    1   DRM -0.7284  0.0000 ****
   6 H1    -3.061672  -1.520598  -1.555449 H    1   DRM  0.3873  0.0000 ****
   7 C3     0.755303  -1.355382  -1.114665 CD   1   DRM  0.0704  0.0000 ****
   8 C4     1.470089  -2.584080  -1.268835 CB   1   DRM  0.1041  0.0000 ****
   9 C5     2.875542  -2.577855  -1.167291 CB   1   DRM  0.0479  0.0000 ****
  10 C31    0.818135  -3.818171  -1.526224 CA   1   DRM -0.1504  0.0000 ****
  11 H2    -0.253552  -3.842789  -1.572960 HA   1   DRM  0.1078  0.0000 ****
  12 C6     3.553571  -1.351338  -0.871098 CA   1   DRM  0.0982  0.0000 ****
  13 C34    3.592388  -3.787849  -1.345203 CA   1   DRM -0.1414  0.0000 ****
  14 H3     4.661287  -3.768517  -1.269578 HA   1   DRM  0.1232  0.0000 ****
  15 C7     2.841125  -0.205587  -0.702450 CA   1   DRM -0.0952  0.0000 ****
  16 H4     3.319756   0.723869  -0.467218 HA   1   DRM  0.1330  0.0000 ****
  17 C8     1.433631  -0.215534  -0.845353 CA   1   DRM -0.3236  0.0000 ****
  18 H5     0.894898   0.703326  -0.717953 HA   1   DRM  0.2121  0.0000 ****
  19 C33    2.938596  -4.951845  -1.603981 CA   1   DRM -0.1528  0.0000 ****
  20 H6     3.490491  -5.864783  -1.737168 HA   1   DRM  0.1465  0.0000 ****
  21 C32    1.530137  -4.965505  -1.688774 CA   1   DRM -0.1788  0.0000 ****
  22 H7     1.017997  -5.892294  -1.877328 HA   1   DRM  0.1560  0.0000 ****
  23 O41    4.894084  -1.456504  -0.789296 OS   1   DRM -0.2752  0.0000 ****
  24 C42    5.713138  -0.344805  -0.502969 CT   1   DRM  0.0853  0.0000 ****
  25 H8     5.357157   0.534120  -1.024856 H1   1   DRM  0.0534  0.0000 ****
  26 H9     6.678058  -0.600295  -0.917419 H1   1   DRM  0.0534  0.0000 ****
  27 C43    5.818176  -0.127798   1.011230 CT   1   DRM -0.0368  0.0000 ****
  28 H10    6.190252  -1.047680   1.449900 H1   1   DRM  0.0883  0.0000 ****
  29 H11    4.827746   0.031710   1.421660 H1   1   DRM  0.0883  0.0000 ****
  30 N44    6.666733   0.961262   1.443359 NT   1   DRM -0.3947  0.0000 ****
  31 C45    6.185173   2.296857   1.144880 CT   1   DRM -0.0147  0.0000 ****
  32 H12    6.237558   2.535128   0.079161 H1   1   DRM  0.0798  0.0000 ****
  33 H13    5.147675   2.377391   1.453756 H1   1   DRM  0.0798  0.0000 ****
  34 C46    7.022356   3.310004   1.910334 CT   1   DRM  0.0333  0.0000 ****
  35 H14    6.860156   3.182031   2.978676 H1   1   DRM  0.0728  0.0000 ****
  36 H15    6.749368   4.320614   1.636091 H1   1   DRM  0.0728  0.0000 ****
  37 O47    8.381557   3.160560   1.609387 OS   1   DRM -0.3654  0.0000 ****
  38 C48    8.857173   1.878846   1.912029 CT   1   DRM  0.0333  0.0000 ****
  39 H16    8.770790   1.691128   2.980422 H1   1   DRM  0.0728  0.0000 ****
  40 H17    9.904303   1.860308   1.639460 H1   1   DRM  0.0728  0.0000 ****
  41 C49    8.079686   0.820682   1.145043 CT   1   DRM -0.0147  0.0000 ****
  42 H18    8.298046   0.932391   0.079856 H1   1   DRM  0.0798  0.0000 ****
  43 H19    8.410124  -0.167262   1.449863 H1   1   DRM  0.0798  0.0000 ****
  44 C10   -3.925966  -0.625909   0.060447 CW   1   DRM  0.2391  0.0000 ****
  45 N11   -4.547642   0.572481   0.043160 N*   1   DRM  0.3029  0.0000 ****
  46 N12   -5.603551   0.574311   0.864109 NB   1   DRM -0.4636  0.0000 ****
  47 C13   -5.660081  -0.607698   1.408400 CA   1   DRM  0.0892  0.0000 ****
  48 C14   -4.605987  -1.422375   0.926153 CC   1   DRM -0.4100  0.0000 ****
  49 H20   -4.370681  -2.434831   1.178524 HA   1   DRM  0.2182  0.0000 ****
  50 C15   -4.245650   1.733072  -0.717905 CA   1   DRM  0.0210  0.0000 ****
  51 C20   -5.237722   2.304643  -1.502239 CA   1   DRM -0.1748  0.0000 ****
  52 H21   -6.215217   1.861030  -1.521863 HA   1   DRM  0.1584  0.0000 ****
  53 C21   -4.962424   3.440850  -2.235992 CA   1   DRM -0.1736  0.0000 ****
  54 H22   -5.740061   3.878300  -2.838265 HA   1   DRM  0.1423  0.0000 ****
  55 C22   -3.697943   4.025461  -2.213626 CA   1   DRM  0.0951  0.0000 ****
  56 C25   -3.413523   5.267329  -3.026133 CT   1   DRM -0.1719  0.0000 ****
  57 H24   -3.594436   5.094528  -4.082861 HC   1   DRM  0.0604  0.0000 ****
  58 H25   -2.383515   5.584616  -2.913196 HC   1   DRM  0.0604  0.0000 ****
  59 H26   -4.050492   6.090792  -2.717477 HC   1   DRM  0.0604  0.0000 ****
  60 C23   -2.723028   3.440374  -1.420513 CA   1   DRM -0.1736  0.0000 ****
  61 H23   -1.741683   3.878857  -1.372158 HA   1   DRM  0.1423  0.0000 ****
  62 C24   -2.990226   2.306922  -0.665520 CA   1   DRM -0.1748  0.0000 ****
  63 H27   -2.235953   1.883187  -0.030038 HA   1   DRM  0.1584  0.0000 ****
  64 C16   -6.727997  -0.978261   2.420767 CT   1   DRM  0.4982  0.0000 ****
  65 C17   -7.500481  -2.210284   1.916190 CT   1   DRM -0.2543  0.0000 ****
  66 H28   -8.268099  -2.494279   2.630218 HC   1   DRM  0.0465  0.0000 ****
  67 H29   -6.845474  -3.064999   1.778919 HC   1   DRM  0.0465  0.0000 ****
  68 H30   -7.984217  -2.004200   0.966512 HC   1   DRM  0.0465  0.0000 ****
  69 C18   -7.708089   0.184217   2.624118 CT   1   DRM -0.2543  0.0000 ****
  70 H31   -8.463759  -0.096418   3.352332 HC   1   DRM  0.0465  0.0000 ****
  71 H32   -8.208265   0.445329   1.698750 HC   1   DRM  0.0465  0.0000 ****
  72 H33   -7.199612   1.070286   2.983940 HC   1   DRM  0.0465  0.0000 ****
  73 C19   -6.052851  -1.313897   3.763001 CT   1   DRM -0.2543  0.0000 ****
  74 H34   -6.798677  -1.586719   4.504274 HC   1   DRM  0.0465  0.0000 ****
  75 H35   -5.496636  -0.462182   4.140109 HC   1   DRM  0.0465  0.0000 ****
  76 H36   -5.361921  -2.145220   3.665345 HC   1   DRM  0.0465  0.0000 ****
@<TRIPOS>BOND
    1     1     2 1
    2     1     3 1
    3     1     5 1
    4     3     4 1
    5     3     7 1
    6     5     6 1
    7     5    44 1
    8     7     8 1
    9     7    17 1
   10     8     9 1
   11     8    10 1
   12     9    12 1
   13     9    13 1
   14    10    11 1
   15    10    21 1
   16    12    15 1
   17    12    23 1
   18    13    14 1
   19    13    19 1
   20    15    16 1
   21    15    17 1
   22    17    18 1
   23    19    20 1
   24    19    21 1
   25    21    22 1
   26    23    24 1
   27    24    25 1
   28    24    26 1
   29    24    27 1
   30    27    28 1
   31    27    29 1
   32    27    30 1
   33    30    31 1
   34    30    41 1
   35    31    32 1
   36    31    33 1
   37    31    34 1
   38    34    35 1
   39    34    36 1
   40    34    37 1
   41    37    38 1
   42    38    39 1
   43    38    40 1
   44    38    41 1
   45    41    42 1
   46    41    43 1
   47    44    45 1
   48    44    48 1
   49    45    46 1
   50    45    50 1
   51    46    47 1
   52    47    48 1
   53    47    64 1
   54    48    49 1
   55    50    51 1
   56    50    62 1
   57    51    52 1
   58    51    53 1
   59    53    54 1
   60    53    55 1
   61    55    56 1
   62    55    60 1
   63    56    57 1
   64    56    58 1
   65    56    59 1
   66    60    61 1
   67    60    62 1
   68    62    63 1
   69    64    65 1
   70    64    69 1
   71    64    73 1
   72    65    66 1
   73    65    67 1
   74    65    68 1
   75    69    70 1
   76    69    71 1
   77    69    72 1
   78    73    74 1
   79    73    75 1
   80    73    76 1
@<TRIPOS>SUBSTRUCTURE
      1 DRM               1 ****               0 ****  ****
@<TRIPOS>HEADTAIL
0 0
0 0
@<TRIPOS>RESIDUECONNECT
1 0 0 0 0 0 0
